conformation_1
     RDKit          3D

 19 21  0  0  0  0  0  0  0  0999 V2000
    7.9580   36.7200   19.3390 C   0  0  0  0  0  0  0  0  0  0  0  0
    8.9510   35.8750   18.7740 C   0  0  0  0  0  0  0  0  0  0  0  0
    8.5400   34.6280   18.2160 C   0  0  0  0  0  0  0  0  0  0  0  0
    7.2920   34.2150   18.2740 N   0  0  0  0  0  0  0  0  0  0  0  0
    6.3290   34.9700   18.8520 C   0  0  0  0  0  0  0  0  0  0  0  0
    6.5800   36.2200   19.3310 N   0  0  0  0  0  0  0  0  0  0  0  0
    9.2860   33.6710   17.6330 N   0  0  0  0  0  0  0  0  0  0  0  0
    8.2440   37.9530   19.9000 C   0  0  0  0  0  0  0  0  0  0  0  0
    9.5660   38.3970   19.9030 C   0  0  0  0  0  0  0  0  0  0  0  0
   10.5870   37.6080   19.3270 C   0  0  0  0  0  0  0  0  0  0  0  0
   10.3120   36.4060   18.8230 C   0  0  0  0  0  0  0  0  0  0  0  0
    5.0510   34.5900   18.9540 N   0  0  0  0  0  0  0  0  0  0  0  0
   11.6410   35.3450   18.2390 S   0  0  0  0  0  0  0  0  0  0  0  0
   13.0000   36.4830   18.0480 C   0  0  0  0  0  0  0  0  0  0  0  0
   12.9820   37.3800   17.0130 C   0  0  0  0  0  0  0  0  0  0  0  0
   14.0670   38.2710   16.8100 C   0  0  0  0  0  0  0  0  0  0  0  0
   15.1960   38.1200   17.6620 C   0  0  0  0  0  0  0  0  0  0  0  0
   15.2230   37.2210   18.7080 C   0  0  0  0  0  0  0  0  0  0  0  0
   14.1200   36.3210   18.9160 C   0  0  0  0  0  0  0  0  0  0  0  0
  1  2  1  0
  1  6  2  0
  1  8  1  0
  2  3  2  0
  2 11  1  0
  3  4  1  0
  3  7  1  0
  4  5  2  0
  5  6  1  0
  5 12  1  0
  8  9  2  0
  9 10  1  0
 10 11  2  0
 11 13  1  0
 13 14  1  0
 14 15  2  0
 14 19  1  0
 15 16  1  0
 16 17  2  0
 17 18  1  0
 18 19  2  0
M  END
$$$$
conformation_2
     RDKit          3D

 19 21  0  0  0  0  0  0  0  0999 V2000
   29.4300   -2.6870   -0.1890 C   0  0  0  0  0  0  0  0  0  0  0  0
   29.6240   -2.5650    1.1880 C   0  0  0  0  0  0  0  0  0  0  0  0
   28.6600   -1.6800    1.9010 C   0  0  0  0  0  0  0  0  0  0  0  0
   27.7010   -1.0720    1.2670 N   0  0  0  0  0  0  0  0  0  0  0  0
   27.5830   -1.1030   -0.0650 C   0  0  0  0  0  0  0  0  0  0  0  0
   28.3450   -1.9800   -0.8340 N   0  0  0  0  0  0  0  0  0  0  0  0
   28.6630   -1.4890    3.1940 N   0  0  0  0  0  0  0  0  0  0  0  0
   30.2390   -3.5100   -0.9560 C   0  0  0  0  0  0  0  0  0  0  0  0
   31.3010   -4.2190   -0.3280 C   0  0  0  0  0  0  0  0  0  0  0  0
   31.5420   -4.0910    1.0510 C   0  0  0  0  0  0  0  0  0  0  0  0
   30.7090   -3.2660    1.7900 C   0  0  0  0  0  0  0  0  0  0  0  0
   26.6190   -0.5070   -0.7380 N   0  0  0  0  0  0  0  0  0  0  0  0
   31.0990   -3.1010    3.5170 S   0  0  0  0  0  0  0  0  0  0  0  0
   32.2290   -4.4670    3.8830 C   0  0  0  0  0  0  0  0  0  0  0  0
   31.7890   -5.7780    3.8940 C   0  0  0  0  0  0  0  0  0  0  0  0
   32.6810   -6.8220    4.2050 C   0  0  0  0  0  0  0  0  0  0  0  0
   34.0140   -6.4900    4.5350 C   0  0  0  0  0  0  0  0  0  0  0  0
   34.4620   -5.1730    4.5710 C   0  0  0  0  0  0  0  0  0  0  0  0
   33.5670   -4.1230    4.2390 C   0  0  0  0  0  0  0  0  0  0  0  0
  1  2  1  0
  1  6  2  0
  1  8  1  0
  2  3  2  0
  2 11  1  0
  3  4  1  0
  3  7  1  0
  4  5  2  0
  5  6  1  0
  5 12  1  0
  8  9  2  0
  9 10  1  0
 10 11  2  0
 11 13  1  0
 13 14  1  0
 14 15  2  0
 14 19  1  0
 15 16  1  0
 16 17  2  0
 17 18  1  0
 18 19  2  0
M  END
$$$$
