DTY
     RDKit          3D

 13 13  0  0  1  0  0  0  0  0999 V2000
   30.2540   -2.5680   74.6470 N   0  0  0  0  0  0  0  0  0  0  0  0
   29.6440   -2.9290   75.9150 C   0  0  2  0  0  0  0  0  0  0  0  0
   30.4450   -3.9540   76.6840 C   0  0  0  0  0  0  0  0  0  0  0  0
   31.3690   -4.4990   76.1010 O   0  0  0  0  0  0  0  0  0  0  0  0
   28.2660   -3.5000   75.5090 C   0  0  0  0  0  0  0  0  0  0  0  0
   27.2580   -2.4780   75.0340 C   0  0  0  0  0  0  0  0  0  0  0  0
   26.8210   -1.4240   75.8630 C   0  0  0  0  0  0  0  0  0  0  0  0
   26.7940   -2.4670   73.7230 C   0  0  0  0  0  0  0  0  0  0  0  0
   25.8850   -0.4270   75.4190 C   0  0  0  0  0  0  0  0  0  0  0  0
   25.9000   -1.4590   73.2560 C   0  0  0  0  0  0  0  0  0  0  0  0
   25.4270   -0.3980   74.0850 C   0  0  0  0  0  0  0  0  0  0  0  0
   24.6220    0.5320   73.6460 O   0  0  0  0  0  0  0  0  0  0  0  0
   30.1990   -4.2930   77.8630 O   0  0  0  0  0  0  0  0  0  0  0  0
  2  1  1  6
  2  3  1  0
  2  5  1  0
  3  4  2  0
  3 13  1  0
  5  6  1  0
  6  7  2  0
  6  8  1  0
  7  9  1  0
  8 10  2  0
  9 11  2  0
 10 11  1  0
 11 12  1  0
M  END
$$$$
DTY
     RDKit          3D

 13 13  0  0  1  0  0  0  0  0999 V2000
    9.9250   13.9750   69.7540 N   0  0  0  0  0  0  0  0  0  0  0  0
    9.6350   13.8330   71.1740 C   0  0  2  0  0  0  0  0  0  0  0  0
    8.4120   14.6560   71.5400 C   0  0  0  0  0  0  0  0  0  0  0  0
    7.9590   15.4550   70.7310 O   0  0  0  0  0  0  0  0  0  0  0  0
   10.8440   14.2980   71.9980 C   0  0  0  0  0  0  0  0  0  0  0  0
   11.9810   13.3300   72.0410 C   0  0  0  0  0  0  0  0  0  0  0  0
   13.2260   13.7020   71.5180 C   0  0  0  0  0  0  0  0  0  0  0  0
   11.8380   12.0740   72.5910 C   0  0  0  0  0  0  0  0  0  0  0  0
   14.2940   12.8090   71.5560 C   0  0  0  0  0  0  0  0  0  0  0  0
   12.8680   11.1570   72.5970 C   0  0  0  0  0  0  0  0  0  0  0  0
   14.1380   11.5440   72.1180 C   0  0  0  0  0  0  0  0  0  0  0  0
   15.1170   10.6980   72.1020 O   0  0  0  0  0  0  0  0  0  0  0  0
    7.8390   14.5290   72.6020 O   0  0  0  0  0  0  0  0  0  0  0  0
  2  1  1  6
  2  3  1  0
  2  5  1  0
  3  4  2  0
  3 13  1  0
  5  6  1  0
  6  7  2  0
  6  8  1  0
  7  9  1  0
  8 10  2  0
  9 11  2  0
 10 11  1  0
 11 12  1  0
M  END
$$$$
DTY
     RDKit          3D

 13 13  0  0  1  0  0  0  0  0999 V2000
   26.1300   22.5850   52.9470 N   0  0  0  0  0  0  0  0  0  0  0  0
   26.5090   22.8290   51.5510 C   0  0  2  0  0  0  0  0  0  0  0  0
   26.3970   24.3040   51.1390 C   0  0  0  0  0  0  0  0  0  0  0  0
   25.9330   25.2450   51.8910 O   0  0  0  0  0  0  0  0  0  0  0  0
   25.5510   21.9320   50.7760 C   0  0  0  0  0  0  0  0  0  0  0  0
   25.7750   20.4360   50.9080 C   0  0  0  0  0  0  0  0  0  0  0  0
   27.0050   19.8350   50.4840 C   0  0  0  0  0  0  0  0  0  0  0  0
   24.8040   19.6220   51.4360 C   0  0  0  0  0  0  0  0  0  0  0  0
   27.2260   18.4680   50.6160 C   0  0  0  0  0  0  0  0  0  0  0  0
   25.0330   18.2430   51.5690 C   0  0  0  0  0  0  0  0  0  0  0  0
   26.1980   17.6590   51.1350 C   0  0  0  0  0  0  0  0  0  0  0  0
   26.3460   16.4460   51.3140 O   0  0  0  0  0  0  0  0  0  0  0  0
   26.8520   24.5980   50.0070 O   0  0  0  0  0  0  0  0  0  0  0  0
  2  1  1  1
  2  3  1  0
  2  5  1  0
  3  4  2  0
  3 13  1  0
  5  6  1  0
  6  7  2  0
  6  8  1  0
  7  9  1  0
  8 10  2  0
  9 11  2  0
 10 11  1  0
 11 12  1  0
M  END
$$$$
DTY
     RDKit          3D

 13 13  0  0  1  0  0  0  0  0999 V2000
   84.1470   43.7570   49.3420 N   0  0  0  0  0  0  0  0  0  0  0  0
   84.7810   44.0620   48.0210 C   0  0  2  0  0  0  0  0  0  0  0  0
   85.3370   42.8890   47.2840 C   0  0  0  0  0  0  0  0  0  0  0  0
   85.8700   43.0440   46.2130 O   0  0  0  0  0  0  0  0  0  0  0  0
   85.9370   45.0260   48.2620 C   0  0  0  0  0  0  0  0  0  0  0  0
   85.3930   46.3460   48.7450 C   0  0  0  0  0  0  0  0  0  0  0  0
   85.6440   46.7700   50.0290 C   0  0  0  0  0  0  0  0  0  0  0  0
   84.6580   47.1680   47.9060 C   0  0  0  0  0  0  0  0  0  0  0  0
   85.1490   47.9950   50.4910 C   0  0  0  0  0  0  0  0  0  0  0  0
   84.1750   48.3890   48.3590 C   0  0  0  0  0  0  0  0  0  0  0  0
   84.4030   48.8190   49.6570 C   0  0  0  0  0  0  0  0  0  0  0  0
   83.9390   49.9130   50.0990 O   0  0  0  0  0  0  0  0  0  0  0  0
   85.2190   41.7490   47.7280 O   0  0  0  0  0  0  0  0  0  0  0  0
  2  1  1  1
  2  3  1  0
  2  5  1  0
  3  4  2  0
  3 13  1  0
  5  6  1  0
  6  7  2  0
  6  8  1  0
  7  9  1  0
  8 10  2  0
  9 11  2  0
 10 11  1  0
 11 12  1  0
M  END
$$$$
DTY
     RDKit          3D

 13 13  0  0  1  0  0  0  0  0999 V2000
   64.2120   59.0260   71.4630 N   0  0  0  0  0  0  0  0  0  0  0  0
   63.9150   58.6880   72.8890 C   0  0  2  0  0  0  0  0  0  0  0  0
   62.7790   59.4940   73.4060 C   0  0  0  0  0  0  0  0  0  0  0  0
   62.2610   59.3030   74.5120 O   0  0  0  0  0  0  0  0  0  0  0  0
   65.1260   59.0470   73.7540 C   0  0  0  0  0  0  0  0  0  0  0  0
   66.3630   58.2190   73.5400 C   0  0  0  0  0  0  0  0  0  0  0  0
   67.4950   58.7590   72.8930 C   0  0  0  0  0  0  0  0  0  0  0  0
   66.3690   56.9090   74.0520 C   0  0  0  0  0  0  0  0  0  0  0  0
   68.6130   57.9270   72.7050 C   0  0  0  0  0  0  0  0  0  0  0  0
   67.5080   56.1000   73.8880 C   0  0  0  0  0  0  0  0  0  0  0  0
   68.6070   56.5980   73.2120 C   0  0  0  0  0  0  0  0  0  0  0  0
   69.6140   55.8620   73.0710 O   0  0  0  0  0  0  0  0  0  0  0  0
   62.3520   60.3180   72.6160 O   0  0  0  0  0  0  0  0  0  0  0  0
  2  1  1  6
  2  3  1  0
  2  5  1  0
  3  4  2  0
  3 13  1  0
  5  6  1  0
  6  7  2  0
  6  8  1  0
  7  9  1  0
  8 10  2  0
  9 11  2  0
 10 11  1  0
 11 12  1  0
M  END
$$$$
DTY
     RDKit          3D

 13 13  0  0  1  0  0  0  0  0999 V2000
   85.3020   43.0320   73.7720 N   0  0  0  0  0  0  0  0  0  0  0  0
   84.8700   42.5910   75.0950 C   0  0  2  0  0  0  0  0  0  0  0  0
   85.7370   41.5470   75.7070 C   0  0  0  0  0  0  0  0  0  0  0  0
   86.6680   41.0290   75.0590 O   0  0  0  0  0  0  0  0  0  0  0  0
   83.5050   42.0000   74.8990 C   0  0  0  0  0  0  0  0  0  0  0  0
   82.4380   43.0170   74.5710 C   0  0  0  0  0  0  0  0  0  0  0  0
   81.9960   43.9160   75.4990 C   0  0  0  0  0  0  0  0  0  0  0  0
   81.8350   43.0290   73.3200 C   0  0  0  0  0  0  0  0  0  0  0  0
   81.0170   44.8750   75.1840 C   0  0  0  0  0  0  0  0  0  0  0  0
   80.8710   43.9700   72.9940 C   0  0  0  0  0  0  0  0  0  0  0  0
   80.4220   44.9020   73.9230 C   0  0  0  0  0  0  0  0  0  0  0  0
   79.4820   45.7400   73.6110 O   0  0  0  0  0  0  0  0  0  0  0  0
   85.4920   41.1990   76.8520 O   0  0  0  0  0  0  0  0  0  0  0  0
  2  1  1  6
  2  3  1  0
  2  5  1  0
  3  4  2  0
  3 13  1  0
  5  6  1  0
  6  7  2  0
  6  8  1  0
  7  9  1  0
  8 10  2  0
  9 11  2  0
 10 11  1  0
 11 12  1  0
M  END
$$$$
DTY
     RDKit          3D

 13 13  0  0  1  0  0  0  0  0999 V2000
   30.6770   -3.3700   50.5160 N   0  0  0  0  0  0  0  0  0  0  0  0
   31.3780   -3.1310   49.2550 C   0  0  2  0  0  0  0  0  0  0  0  0
   31.9670   -4.4050   48.6940 C   0  0  0  0  0  0  0  0  0  0  0  0
   32.0170   -5.4920   49.3380 O   0  0  0  0  0  0  0  0  0  0  0  0
   32.4890   -2.1160   49.5260 C   0  0  0  0  0  0  0  0  0  0  0  0
   32.0300   -0.7150   49.8830 C   0  0  0  0  0  0  0  0  0  0  0  0
   32.2930   -0.2240   51.1250 C   0  0  0  0  0  0  0  0  0  0  0  0
   31.3170    0.0570   48.9730 C   0  0  0  0  0  0  0  0  0  0  0  0
   31.8570    1.0320   51.4460 C   0  0  0  0  0  0  0  0  0  0  0  0
   30.9070    1.3420   49.2730 C   0  0  0  0  0  0  0  0  0  0  0  0
   31.2050    1.8270   50.5410 C   0  0  0  0  0  0  0  0  0  0  0  0
   30.8150    2.9790   50.9180 O   0  0  0  0  0  0  0  0  0  0  0  0
   32.3720   -4.3160   47.5370 O   0  0  0  0  0  0  0  0  0  0  0  0
  2  1  1  1
  2  3  1  0
  2  5  1  0
  3  4  2  0
  3 13  1  0
  5  6  1  0
  6  7  2  0
  6  8  1  0
  7  9  1  0
  8 10  2  0
  9 11  2  0
 10 11  1  0
 11 12  1  0
M  END
$$$$
DTY
     RDKit          3D

 13 13  0  0  1  0  0  0  0  0999 V2000
   78.1870   69.1110   54.6720 N   0  0  0  0  0  0  0  0  0  0  0  0
   78.4910   69.2750   53.2300 C   0  0  2  0  0  0  0  0  0  0  0  0
   78.2650   70.7210   52.9630 C   0  0  0  0  0  0  0  0  0  0  0  0
   77.6840   71.4160   53.7710 O   0  0  0  0  0  0  0  0  0  0  0  0
   77.6090   68.4400   52.2900 C   0  0  0  0  0  0  0  0  0  0  0  0
   77.8710   66.9670   52.3560 C   0  0  0  0  0  0  0  0  0  0  0  0
   79.0090   66.4720   51.7490 C   0  0  0  0  0  0  0  0  0  0  0  0
   77.0040   66.0680   53.0050 C   0  0  0  0  0  0  0  0  0  0  0  0
   79.3270   65.1250   51.8140 C   0  0  0  0  0  0  0  0  0  0  0  0
   77.3050   64.7110   53.0120 C   0  0  0  0  0  0  0  0  0  0  0  0
   78.4750   64.2220   52.4400 C   0  0  0  0  0  0  0  0  0  0  0  0
   78.7940   62.9710   52.5270 O   0  0  0  0  0  0  0  0  0  0  0  0
   78.5830   71.2520   51.9460 O   0  0  0  0  0  0  0  0  0  0  0  0
  2  1  1  1
  2  3  1  0
  2  5  1  0
  3  4  2  0
  3 13  1  0
  5  6  1  0
  6  7  2  0
  6  8  1  0
  7  9  1  0
  8 10  2  0
  9 11  2  0
 10 11  1  0
 11 12  1  0
M  END
$$$$
